Version 4.1
SHEET 1 880 680
WIRE 224 16 48 16
WIRE 224 64 224 16
WIRE 48 128 48 16
WIRE 224 176 224 144
WIRE 320 176 224 176
WIRE 432 176 320 176
WIRE 224 208 224 176
WIRE 320 224 320 176
WIRE 48 256 48 208
WIRE 224 336 224 288
WIRE 320 368 320 288
FLAG 48 256 0
FLAG 224 336 0
FLAG 384 208 Output
FLAG 320 368 0
SYMBOL res 208 48 R0
SYMATTR InstName R1
SYMATTR Value 2k
SYMBOL res 208 192 R0
SYMATTR InstName R2
SYMATTR Value 5k
SYMBOL voltage 48 112 R0
WINDOW 123 0 0 Left 0
WINDOW 39 0 0 Left 0
SYMATTR InstName V1
SYMATTR Value 10
SYMBOL cap 304 224 R0
SYMATTR InstName C1
SYMATTR Value 10n
TEXT 8 360 Left 2 !.tran 10ms startup
