Version 4.1
SHEET 1 880 680
WIRE 48 144 -48 144
WIRE 160 144 112 144
WIRE 352 144 224 144
WIRE -48 240 -48 144
WIRE 352 240 352 144
WIRE -48 400 -48 320
WIRE 160 400 -48 400
WIRE 352 400 352 320
WIRE 352 400 160 400
WIRE 160 432 160 400
FLAG 160 432 0
SYMBOL voltage -48 224 R0
WINDOW 123 0 0 Left 0
WINDOW 39 0 0 Left 0
SYMATTR InstName V1
SYMATTR Value SINE(0 10 60)
SYMBOL res 336 224 R0
SYMATTR InstName R1
SYMATTR Value 100
SYMBOL cap 224 128 R90
WINDOW 0 0 32 VBottom 2
WINDOW 3 32 32 VTop 2
SYMATTR InstName C1
SYMATTR Value 10µ
SYMBOL diode 48 160 R270
WINDOW 0 32 32 VTop 2
WINDOW 3 0 32 VBottom 2
SYMATTR InstName D1
TEXT -80 456 Left 2 !.tran .2
